third file test

<<<<<<< HEAD
new line...
=======
new line -> modified by feature-1
>>>>>>> modified file 3 in feature-1
